FARMHAND
PATEN
NOSTRI
DOCKETS
VITAM
AO
FORESHORE
HUELESS
LIGUORI
CHASUBLE
CANTICLES
CIBORIUM
PURGATORIAL
UK
PANDIES
TWIGGING
RAWLY
COMMUNICANT
SUBDEACON
KISSER
DALMATIC
AMANA
PIETIES
VEUILLOT
UNFALLEN
ALPHONSUS
CAPUCHINS
GROOVED
CRIPES
KILTED
STEPHANOS
SEAWATER
BONAVENTURE
DWYER
ACOLYTE
MELCHISEDEC
BYRON'S
IRRADIATE
REPERCUSSION
ITE
PLUMAGED
QUARANTINES
PARACLETE
CRISPING
CORONALS
LONGDRAWN
SHAHROOD
TERTULLUS
SINALOA
MEDART'S
QUELL'D
SERPENTINA
TANTE'S
ZZZ
TRUANTRY
BOGISLAF
SYMM
VAISRAVANA
DUYCKINCK
ECCLUS
NEWBERRYS
KEEBO
BEGINING
PAROXYSMAL
EARES
SANDHILL
SOUTANE
BOUS
UNDRIED
INTERLEAVED
ROSARIES
MURMUROUS
QUAID
DELVING
INCENSING
HICKEY
ENNIS
CEREMENTS
EST
AGEING
SAINTLINESS
ABASED
UNREPENTED
SAVOURS
INCOMPREHENSIBILITY
HOLILY
CANONICAL
MEA
EMBITTERING
HORSEPLAY
BEGETTING
OVERTONE
CAPUCHIN
SUNDERING
NOVENA
HUMERAL
SEABORNE
INCERTITUDE
SODALITY
TOWSER
SEABIRD
STEPHANOUMENOS
STRIFES
ORFIS
HILLOCKY
INTERDEPENDENT
NEICE
OGASASAWARA
MISUBBLE
GUZZLE
EXORCISM
LINENS
THURIBLE
CONNOLLY
ESPOUSAL
LOOPING
LIFFEY
THEOREM
WAVELET
DISINGENUOUS
CHAPLETS
ODOURLESS
FRUITLESSLY
CLONTARF
DOVETAILED
WINDSWEPT
CHARACTERLESS
BELVEDERE
SUPEREROGATION
TURNOVER
CYCLIC
FENARDI
CHARIOTEERS
CELEBRANT
CYCLING
FRANCISCANS
PAINLESSLY
STILLY
REINFORCING
MIDSTREAM
TIMELESS
SUGARED
DOMINI
CONTRITE
SUNWARD
FEATHERING
OMNIPRESENT
SINLESS
PREFECTS
CRANE'S
TINGES
NOVITIATE
ALLAYING
WAVELETS
VOWEL
HOWTH
FALLON
FILCHED
SKYLINE
COMMUNIONS
TESTAMENTS
UNCONTAMINATED
INVENTIVENESS
HARTS
BUSKINS
EYELESS
SPURNING
FOULLY
BREAKWATER
CONFESSIONAL
VOYAGING
UNGRUDGINGLY
WILFULNESS
FLUSHES
BIBLES
TIMING
SACRAMENTAL
CONCERTINA
PENANCES
RECREATE
SURRENDERING
EMBAYED
SANDED
SIBILANT
UNRESTING
GARDINER
PALEST
MAGUS
LOUSE
MACAULAY
SUFFERANCE
ANOINT
VESTURE
COMMINGLED
CHOIRS
STINK
HINDS
ANTELOPES
MERGE
NEBULOUS
ARCHANGEL
LOWLIEST
JETSAM
COMMUNING
REDDEST
IMPRINTS
MORTIFICATIONS
WIELDING
MISRULE
ITCH
REVERBERATION
DEDALUS
WHETTED
CRUSTS
MIRTHLESS
PASSIONLESS
BANEFUL
IMAGERY
RANCOUR
TUFTED
REMITTED
UNDEFINED
MEDIEVAL
DISSOLVES
DROWNDED
SACRIFICIAL
LANDWARD
SEDUCE
NOMADS
LEADER'S
BRACKISH
DISLOYALTY
UNIVERSALITY
OILS
CREASED
DOMINICAN
IMMUNE
FRANCISCAN
LEOPARDS
DALY
PIERCINGLY
TRANSFERENCE
RIFLED
EXHORTATION
RESPONSES
ORDINATION
MORTIFY
DISPASSIONATE
SERE
ABSOLVED
HARMONIZED
EJACULATIONS
REMOTENESS
IMPERISHABLE
SQUALOR
TEACUPS
BALKED
NAKEDNESS
SNAKY
RECEDE
UNBUTTONED
WANE
SHARPENING
PERIODIC
FITFULLY
EMBRASURE
FASTS
BRANCHING
STORIED
FOXY
RINGED
FISHY
ARTIFICER
NICKNAMED
FLECKED
RADIANTLY
STAGNATION
SWOONING
WANTONNESS
ELFIN
PARRIED
MARSHALLED
EMBEDDED
BEGGAR'S
FABRICS
INHALING
ADOLESCENCE
COMPLEXITY
SCOOPED
CERTITUDE
VIRGINAL
FILING
DEEPEN
SANCTIFIED
EUCHARIST
FOREWARNED
SUBTERFUGE
SCRAWLED
FORGING
FEVERED
INATTENTION
WORDED
DEFT
CROSBY
SQUALL
IRREVOCABLE
KINSHIP
PLUNGES
CATACOMBS
ROTTED
SWIRLING
URINE
SEQUEL
ACHIEVING
DEVOTIONS
BANTER
CADENCE
ENTRENCHED
REPELLENT
DIFFIDENT
IMPALPABLE
COMPASSES
QUARTET
SYMMETRICAL
INTERWOVEN
MORTALLY
SMACKED
HARES
DAPPLED
RIVULET
DORMITORY
FLIPPANT
DISCERNING
RESOUNDING
IMMUNITY
WORSHIPPERS
INDELIBLE
PURGATORY
ASKANCE
AMENDED
INIQUITOUS
UNQUESTIONABLE
MUSINGS
MANNERED
VAGUENESS
LES
DIVESTED
INACTION
AFLAME
CLOISTERS
SUPPORTS
SWISH
MIRRORED
TABERNACLE
ASSIDUOUS
COMPARISONS
PREFECT
IMPERFECTIONS
PITH
OUTBURSTS
TURRETS
DEVOTIONAL
COMMISERATION
JUDGEMENTS
DEFILED
WORKSHOP
COLOURLESS
TREPIDATION
WAYWARD
HALLOWED
DISBELIEVE
ANTAGONISM
TOWELS
DISCOURAGING
SUREST
BRITTLE
HUGO
CINDERS
MEDLEY
BRINE
DRYNESS
WADING
JESUITS
QUICKEN
ENVOY
RUSSET
SENTRIES
INTER
KEYBOARD
PONTIFF
ABSOLUTION
SQUAD
REVERENT
ODOURS
RECURRING
UNFORESEEN
STUFFS
AGONIZING
FLOODING
DAMNATION
AGLOW
LONGINGS
ARID
EJACULATION
VESTED
PATTERING
MUFF
RAVAGED
LUCID
EQUIVOCAL
PAWN
JESUIT
STRENGTHENING
IMPOSITION
FOODS
FORMLESS
QUESTIONER
ARRAS
POISE
MATTED
GILLS
GOSPELS
DISSOLVING
COMMANDMENT
FRINGES
ELEVATE
OUTDOOR
SUFFUSED
BARRACK
DREGS
PANTS
LOTH
PRIEST'S
UNFOLDING
ACQUIESCED
HUED
ROBED
CYCLE
COLLECTIVELY
ERR
EVOKED
PURIFIED
CONFUSEDLY
STEPHEN'S
RIVER'S
FREQUENCY
SNEEZE
REDEEMED
ELUDED
SHAMED
DISOBEYED
SUFFOCATED
PRISM
HOOP
ACCOMPLISHING
SEAWEED
TANNED
RHYTHMIC
EFFACED
TENFOLD
STOCKING
BAREFOOT
CATECHISM
CLOISTER
DUTIFUL
QUICKENING
VIRGIL
LACES
INAUDIBLE
SHUNNED
HALLWAY
KINDLING
CONFESSOR
PULSES
ELUSIVE
SPINE
BROODED
MEDITATIONS
UNREST
FOOTPATH
REVOLTED
IMPERSONAL
RITUAL
RIGOROUS
SEAWARD
PERFECTIONS
PITIABLE
ATHLETIC
SNARES
PRELUDE
RETAINS
QUENCH
SHINGLE
FRAUGHT
LANGUOR
HUMILIATED
DESIST
UNITING
CHORD
THIGHS
HIPS
DUNG
SPOUSE
RITE
REPELLED
UNAWARES
ACQUIESCENCE
BOTTOMS
PROPHECIES
MEANINGLESS
INSISTENT
TURBULENT
SINNED
EXALTATION
LUMPS
GIVER
UNCOUTH
CLERICAL
STRIDING
SCRUPULOUSLY
CITADEL
UNHEEDED
FASTING
DANES
FABULOUS
LISTLESS
BARED
REGRETFULLY
HEWN
RECURRED
SPECKLED
WELLINGTON
SOARING
ENCAMPMENT
SINFUL
WANDERER
DISHEARTENED
RECEDING
REPUGNANCE
MISTRUST
SCRUPULOUS
THEMES
AGILE
NOISELESS
BECKONING
ORCHARDS
CLAMBERED
GUARDIANS
DISTRACTION
ISLES
AVAILED
GLORIES
THEOLOGICAL
DILATED
INHUMAN
SUPPLE
DIRECTOR
WANING
SHADOWED
PRIESTLY
RUNNER
CABBAGES
PAUSES
WADED
ENLIGHTEN
PHASES
UNAFFECTED
SUPPRESSION
BELGIUM
VOCATION
ENRICHED
WATCHERS
SACRAMENTS
TRIPLE
COLLEGES
TWITCHING
WORKHOUSE
PRIESTHOOD
N'T
ASSIGN
AMEN
SLUGGISH
NEWMAN
CLEFT
CHRISTENDOM
PATCHWORK
DRENCHED
CHEWING
TAPE
WINTRY
WILDER
NORFOLK
THROB
ABIDING
DOWNS
POISED
PROFANE
SHYNESS
SWOON
KNOTTED
SPECTRE
FERVENT
MISSA
FABRIC
FITFUL
ADORATION
DEACON
DIVING
CONSCIOUSLY
CAMPBELL
DISCARDED
ADVENT
LOOSELY
UNFINISHED
WILFUL
LINKED
RETAINING
TEMPORAL
SACRAMENT
CORRIDORS
GLIMMERING
SUBJECTION
SHOVEL
BIRD'S
DEDICATED
NAMELESS
OUTBURST
FRINGED
CIRCLED
WATERED
AZURE
ETERNALLY
STALE
GRIEVOUS
MYSTERIOUSLY
COLLARS
SYMBOLS
DANGLING
DIVERT
SMELT
SUNKEN
UPLIFTED
UNEARTHLY
GIRLISH
CARESS
WREATHS
SHAVEN
DOWNCAST
GREASY
DARKLY
INTRICATE
DARKENING
GRASSES
IDLY
IMMINENT
PLANKS
WITHHELD
UNDO
CHOIR
CONSTRAINED
MEEK
TWIG
RECALLING
TROUBLING
DIFFERED
QUICKENED
PRESUMED
MEASURING
GLIMMER
PLANTING
PALLID
BIDDEN
DOWNWARDS
NOOK
TRINITY
PEEL
PRONE
INSTINCTIVE
MASKED
WELLS
SCRUPLES
MUSE
MARTYR
REGISTER
CONTEMPLATING
ALOOF
INDULGENT
SHOD
WATERY
TEXTURE
SHRINE
CRITICS
CLICK
WRUNG
CRICKET
FADE
PENANCE
TANGLE
AREAS
IMAGINING
ACCENTS
OUTLET
SANCTUARY
SIDEWAYS
POOLS
REPENTED
COTTAGES
SLATE
WEIGH
BOYISH
DRAINED
CHANT
RIOT
LAPSE
DETACHED
OVAL
NOISELESSLY
REDDISH
PATRON
JARS
HAM
OBEYING
TEMPTATIONS
CHILLED
MASTS
THROBBING
INDISTINCT
TICKETS
SEMBLANCE
RAGED
MORTIFICATION
FADING
VACATION
SPADE
DESERTS
LIVID
STRAND
DEVOUT
LUST
MODIFIED
EMERALD
RIM
UNDONE
SLOPING
BESET
MORNINGS
ACHED
ROOTED
FAINTING
BROOD
DISCREET
AMENDMENT
CLASP
PULPIT
DESOLATION
FLUID
URGING
REASONED
FLEECE
LINGER
CURVES
PLUNGING
EXERTED
FRIED
STIFFLY
KINDLED
PRICKED
CAVES
PACED
ACCEPTABLE
BOYHOOD
LUSTRE
LIFE'S
DEFERENCE
POMP
HAZE
PIETY
SYMBOL
ACHIEVE
PROCESSES
ODOUR
GLEE
TAR
CORDIALLY
STAIN
MULTIPLIED
TUTOR
PROSE
FULLER
ENLIGHTENED
INFERNAL
INVESTED
MOIST
IRRITATION
RICHER
TREMULOUS
BEADS
SILKEN
DIN
RAPTURE
SOVEREIGNTY
DISPLEASED
CLOUDY
FORGIVENESS
DRAWERS
INASMUCH
STROVE
FLUTTER
STORED
SPORTS
ACCEPTANCE
PROPHECY
RABBITS
SPIRITED
FRAIL
FLEE
REMOVAL
SUBJECTED
DELIVERANCE
BECKONED
VEILED
COMMUNION
CURRENTS
MELODY
COMPANIONSHIP
ECSTASY
TRIALS
FAVOURED
HUMILITY
WEEDS
GLOWED
CREATOR
RACING
FLATTERED
PERILOUS
PENETRATE
PHRASES
KNIVES
ECHOES
ROCKING
DRIPPING
INGENUITY
SOUR
EYELIDS
ALLUSION
ANEW
SPACES
OLIVE
STING
DIMINISHED
VERGE
GREET
TRAVERSED
ASSOCIATIONS
PERFUME
SCRAMBLED
SKIRTS
UTTERANCE
TRIVIAL
LEGEND
SWAYING
GLEAMED
MUSED
ARISEN
REVEREND
MOISTURE
ASCENDING
MISTS
THEME
OFT
NERVOUSLY
REINS
HAWK
GROSS
SUMMONS
NORTHWARD
FEVERISH
DELIBERATE
WHISTLED
PIERCING
THRICE
WINGED
SANDS
DRIFTING
VIRGIN
JOYFUL
DEALT
ELABORATE
THURSDAY
DOVE
POSITIONS
HUMBLY
DARKENED
IVORY
NOISES
TRANSFORMED
TRIBUTE
CURVE
ECHO
STRIPPED
GESTURES
SHALLOW
DESIGNS
TROUBLESOME
HARVEST
ROUNDED
VAINLY
TURF
SUFFRAGE
REVEAL
STRODE
HARNESS
SOURCES
SORROWFUL
BRISKLY
KNEELING
BESTOW
RICHLY
FROWN
VEGETABLE
EVERLASTING
CASH
HUE
SHRANK
WITHERED
DOME
STEPPING
FIREPLACE
RESOLUTE
SERENE
ALMIGHTY
PRACTISED
QUAINT
ROOFS
REFLECTING
THRILL
STRIVING
CORDIAL
WEARINESS
CONTEMPLATION
ATTRACTION
REPENT
COURTS
ARGUE
CORD
DEVICE
BOUGHS
INCENSE
SHAPES
SLIM
TONGUES
SWING
MYSTERIES
RESTRAINT
INVOLUNTARILY
RESPECTFUL
UPWARDS
WESTWARD
DUCK
WEDNESDAY
TUESDAY
KEENLY
FLUSH
SAINTS
EMINENT
ACCENT
FREED
JAR
VAGUELY
REMORSE
CHAPEL
MOMENTARY
AVAIL
FANTASTIC
DIMLY
RECKLESS
SALVATION
SHRILL
SKULL
CREST
BIND
TUMULT
VICTOR
STOCKINGS
LID
HEROIC
RAW
RADIANT
BANDS
DOOM
SUBTLE
FOLDS
RACES
DRIFT
SUNRISE
LUNGS
LEAPING
HARBOUR
WHISPERING
CREATE
