BOOING
MARYBOROUGH
FATTISH
TITLEPAGE
ZACCHARY
DIORAMA
ECCLESIASTES
MOZAMBIQUE
CRIPES
AMERIKAY
STARDUST
LAMMERMOOR
DRIVEL
SWOP
WETTISH
BAIRD'S
GERHART
VATES
IRRADIATE
ELLIPSOID
PATEN
ITE
TRALALA
MARRYAT
COEXISTENT
PURGATORIAL
MARTINO
UNLIVED
MATRICULATION
DWYER
PARNELL'S
BLACKROCK
ONLINE
FORSTERS
CHASUBLE
FOXING
SHITE
RAWLY
PROFANER
CIRCUMFLUENT
EAVE
FIANNA
EVERLIVING
DIVI
LAPIDE
AMANA
BLARNEY
ISAIAS
ALOYSIUS
LOBS
PROF
MAUNDY
BLAZERS
MENTEM
BOLAND
QUIA
COEFFICIENT
GREENSLEEVES
WHALEY'S
CUSPED
VERGES
GONZAGO
LAKELIKE
TEMPTINGS
INGOMAR
OONA
TEMPTERS
UNLIT
MELNOTTE
TOTUM
DAVITT
CIBORIUM
CRISPING
BACKHAND
SHORTBREAD
EPHOD
URINAL
DALMATIC
ALPHONSUS
HALPIN
CARYSFORT
ASCII
UNFALLEN
BARNARDO'S
CORONALS
FALLINGS
MAGEE
EMBITTERMENT
COMMUNICANT
DOCKETS
WATERPROOFS
BAAING
HOUSEDOOR
POENA
TUNELESSLY
TEMPORA
BREADBASKET
BANTRY
UNWATCHFUL
BEATIFIC
SMILER
PEARD
HUELESS
UNANSWERING
PORKERS
KILTED
ABLATIVE
KOSTKA
LIMERICKS
VOSTRA
KNUCKLY
BALDY
HUNKERS
ARKLOW
SUAREZ
TRANSFIXING
MOLLIFYING
JARVIES
STANISLAUS
MATRIC
WATERLOGGED
TWISTERS
MONSTRANCE
UNBREATHABLE
MIDWIFERY
PINHOLES
HANDSEL
UPRAISE
DYAS
DOLAN'S
DOMINATIONS
PAULO
ORGIASTIC
UNBAPTIZED
RINGLETTED
O'KEEFFE
MURMUROUSLY
NASH'S
DEWLAPS
LONGDRAWN
O'SHEA
ARSE
INVERARITY
POLLUTES
GLAND
COWDUNG
BYRON'S
MORIARTY
GODFORSAKEN
DOHERTY
PLATANUS
INTRIGUERS
AQUINAS
LANEWAY
SPIKENARD
BEDIMMED
NT
ILLIS
FUTURUM
RAVISHERS
RACEHORSES
SEAWALL
SUPERSATURATED
HOLYHEAD
ALIGHIERI
FORESHORE
ELIZABETHANS
QUADRUPLING
SNEERER
MERRION
FURLONG'S
VILEST
SEAWATER
EXCREMENTITIOUS
GONZAGA
HABEO
DULLARDS
NOSTRI
WINESHOPS
EON
PASSIONLESSLY
PANDIES
PIETIES
WHALEY
GLORIAM
LINGUA
ACOLYTE
VENIAL
LUMPISH
MANUM
WONDERSTRUCK
ELECTA
FARMHAND
INEFFECTIVENESS
XAVIER
BERRETTA
EWART
CUSACK
ALEEL
MAJOREM
PALOR
GADES
SURPLICES
DUNDRUM
OILCAN
JARGONS
COUNTERACTS
MACALISTER'S
SAURIN
APOSTLESHIP
JIBING
SACRISTY
THUSNESS
MUTAMUR
DECENTEST
ROSEBUSHES
CULTUS
KNICKERS
O'FLYNN
EBOOK
DISPOSSESSION
HELLFIRE
MOYNIHAN
DEDI
AO
CRUCIFIES
VEUILLOT
WINY
PLOP
NIGHTSHADE
POTSHERDS
GREYED
IMPENITENCE
GLYNN'S
CAPUCHINS
ROUGED
SIMPLICITER
QUARANTINES
ATQUE
OVERCOATED
CORRIGAN
VITAM
SURD
SUBDEACON
ROCHE'S
PARACLETE
TUSKER
RHYMESTER
MENDAX
MOHER
PALMA
BLANKETY
GRANDUNCLE
TANTO
GOGGINS
HELY
HOM
LANIGAN
GLYNN
RIPPINGLY
SCUT
DESIROUSLY
CASHMAN
GROINS
BESTIALLY
CANTWELL
O'GRADY
DOGMATISTS
PROTAGONISTS
RODY
PIERHEAD
UNGRACED
HOGWASH
VERVAIN
LEPIDUS
HOYDENISH
PARLEY'S
PANDY
GROOVED
UK
WHITEBOY
KISSER
FOOTBALLERS
COPT
DUN'S
ESTHETICS
DEFLOWER
DUMBBELLS
CUSTOMHOUSE
ARNALL
CLODHOPPERS
NEWCOMBE'S
VILLANELLE
CANTICLES
PRELATIC
SION
UNDIVINED
PLAYROOM
LIGUORI
DISMANTLE
CHINES
ADULTERER
SPECIOSA
BONAVENTURE
UNIVERSALIS
SANCIAN
PLUMAGED
FACIES
LATINIST
MERCIFULNESS
REPERCUSSION
SIZEABLE
MELCHISEDEC
HARFORD
PROVINCIAL'S
BALDHEAD
MARSEILLE
STEPHANOS
CORRIGAN'S
CONFITEOR
PEDALLING
TWIGGING
MILESIAN
LYNCH'S
LEESON
BLEAKLY
GUTENBERG
EONS
ADMIXTURES
HURLEY
SKEWERED
EVOKER
KINGSBRIDGE
MUTANTUR
BARMEN
HORAN
CHAMBERING
FARROW
POTBOY
ESTIS
REFRIGERATING
GOATISH
WISEACRE
POETICS
CURBSTONES
EMOTIONALIST
TUSKERS
REDHOT
OGLINGS
MAPLE'S
ROSCOMMON
NIGHTSHIRT
MACALISTER
DOLAN
SALAAMED
STRESSED
GENDERS
OARSMAN
SUNDERING
PAUPERUM
EUCHARISTIC
SODALITY
CURTSYING
MYRRH
VEXILLA
FOSTERAGE
CORBET
GUTENBERG'S
MURMUROUS
DELVING
FINGERNAILS
WELLS'S
CLANE
DANDYISH
HEARTBURN
GAEL
EXHALE
PRIESTED
HAYSEEDS
AUT
GREAVES
ASTRA
BORROWERS
SOUTANE
SAINTLINESS
INTERLEAVED
CLOUDLETS
PROBED
BACULUS
EST
FELLS
INCOMPREHENSIBILITY
BALSAMUM
CALUMNIOUS
EBONITE
SAVOURS
SHADOWINGS
INALIENABLY
CAPUCHIN
HURROO
MYRRHA
HOLILY
GRATTAN
OHMS
TRIA
SCHISMS
WAINSCOT
MALAHIDE
INDICES
STRIFES
YOUS
PLENIPOTENTIARY
ADULTEROUS
PROCESSIONAL
BURSAR
PROGRESSES
BALLOCKS
GNAWS
COWYARD
MONKEYISH
SANDHILL
LUSTED
SPRINTER
COMPANIONLESS
ANGELICAL
TOWSER
LOB
SEPULCHRES
CAMBRENSIS
WHORES
BOVINE
HARRIDAN
CANONICAL
UNREPENTED
CARRICKMINES
SECESSIONS
UNREPENTANT
BUCKETFUL
CLOISTRAL
FENIAN
MAGGY
PLAYBILL
SADDLEBOW
SIGNBOARDS
GIRALDUS
HYPOTENUSE
OVERBLOWN
ESTHETICALLY
LEVITE
SCULLION'S
CLANBRASSIL
SCANDALIZE
WALLIS
JEHOSHAPHAT
MEA
RICTUS
SINFULLY
EILEEN'S
ROSIN
IGNATIUS
AGINCOURT
BRIGID
HINGELESS
PISS
INEXACT
COPYBOOK
SAWN
DISREMEMBER
CARVERS
FALCONRY
RATH
BOUNDLESSNESS
BIKE
QUOD
HANDBALL
UNSURE
O'BRIEN'S
PEARLED
YORKISTS
ABETTED
TRIGONOMETRY
RIVAL'S
DOVE'S
SEABIRD
THUDS
STASIS
HURRAY
SIEGFRIED
ELECTROCUTION
INCERTITUDE
SEETHES
AGEING
CRICKETERS
BESTIALITY
ABASED
MILKMAN'S
BALBUS
DEARNESS
AQUAM
BEGETTING
TALAVERA
HICKEY
CLOSURE
ATHEISTS
MONSTRAT
STEPHANOUMENOS
CONFESSIONALS
SPRINGBOARD
SUNBONNETS
SICKISH
TRAINER'S
SPATIAL
FOREKNEW
BUSHE
HUMERAL
ROSARIES
GALVANI
CEREMENTS
NOVENA
HORSEPLAY
MARIANA
ASPERA
BOUS
QUAID
ENNIS
SINGLETS
HELLWARD
SEABORNE
INCENSING
PRAISER
COUGHS
REFINES
FAMILIA
RICCI
KINETIC
SHIES
ROGUE'S
EMBITTERING
NATIONALIST
RHEUM
CRANLY'S
COL
CRAYONS
TIG
DUMBBELL
KENDAL
FILTHILY
GOATEE
BARMAIDS
PHILOSOPHIAE
PAWNS
UNDRIED
OVERTONE
KILLARNEY
WAXES
BYRD
DIGGED
BROTHELS
CONNOTATION
BLITHERING
RESHAPING
CONMEE
LOOPING
GLEESON
IPSO
DISBAND
WEDNESDAYS
ESPOUSAL
FOETUS
GOADS
HAUPTMANN
TYSON
CHAINLESS
BESMEARED
GIBBETED
CHRISTY
DOVETAILED
MOLESWORTH
BREASTBONE
FOOTBOARD
ROOTING
ROBARTES
SUNT
DISINGENUOUS
DESUETUDE
BRIMLESS
PEDAGOGUE
SPIFFING
STULTIFIED
DREARIER
ROCHE
LIMBO
LUMINOUSLY
PARNELL
WAGONETTE
GUZZLE
WEARIER
FLEMING'S
PRIESTCRAFT
JUXTA
VISA
ELLIPTICAL
FRUITLESSLY
PHRASING
CYCLIC
WICKLOW
HEADLINE
CAPERED
ODOURLESS
LAVATORY
VENTRICLES
MOODINESS
LALA
BRASSES
LUSTFUL
ORDURE
SHIPWRECKS
CARDIAC
SINKINGS
TRILLIONS
COWHOUSE
CHALKS
OVERSEE
JUGGLE
SLOBBERING
CHEERLESSLY
LECHEROUS
REDDEN
WINDSWEPT
COWLED
DALKEY
MUDDIED
PAINLESS
CLOGGING
KNOTTING
THEOREM
HULKS
WORLDLINGS
SIMOOM
GAMECOCKS
JOEY
ALLEGHANIES
TEMPTRESS
FERRULE
CLONTARF
NOBS
TWINES
PIDGIN
CARMELITE
PHANTASMAL
SHAMBLING
STANK
NEEDINESS
CHARACTERLESS
IBIS
PRAXITELES
PREFECT'S
DRUMCONDRA
RESCRIPT
CASEY'S
RIORDAN
INTELLECTION
INANITION
NOTEBOOKS
BACKSIDE
EXORCISM
FAIRVIEW
COMICALLY
GREYLY
CATCHWORDS
ROUNDERS
STEWING
SHIVERY
JAPANNED
SECTARIANISM
DIVESTING
PROTRUDES
GESTATION
CANONICALS
WHITED
WINDOWED
TREBLING
BEAKED
LINENS
MILLIONTH
PROLONGS
INVESTOR
EPICAL
TURNOVER
FRONTISPIECE
ABJECTION
THURIBLE
OSIER
FREEMASON
TRELLISES
CHAPLETS
PORTENTS
SUPEREROGATION
SIMILITUDES
LIFFEY
TSAR'S
WAVELET
HOARDINGS
BELVEDERE
CONNOLLY
THUNDERCLOUD
HOUNDED
ACCRUING
LAGGARDS
PREFECTS
NOS
POCK
SCHEMER
FACINGS
DAYDREAM
LULLING
MOCKER
TRIESTE
UNDEFILED
SHELLEY'S
WHOLENESS
RENAMED
NURSEMAIDS
GIVERS
AMASS
SALUBRIOUS
WHITSUNTIDE
ARMAGH
VOICING
LESSING
JANGLED
LADLED
HORNPIPE
PLANING
DEUS
TRANSGRESSIONS
CONGEALING
FLYLEAF
LEWD
SUGARED
TRANSFERS
JOHNSTON'S
HOWTH
WAVELETS
CONTRITE
COBBLED
SINLESS
FALLON
KERRY
ALLAYING
JIBES
DESISTING
POLLING
JUMPERS
MILLIONFOLD
EXAMS
TURPIN
NUDGES
CLACKING
BACKLESS
THIMBLEFUL
PRONG
MIDSTREAM
SUBTLEST
MARX
VISCID
LACY
BUDDHISTS
BOBBINS
SWEATERS
TEMPLE'S
ABASING
VITA
LAWTON'S
WITTILY
GUILELESSNESS
ENDOWING
POWERLESSNESS
INCOMMUNICABLE
IRK
FLAGSTONE
VAPOURY
VOWEL
NOVITIATE
PAX
JACKETED
CATCALLS
ANTISOCIAL
UNCREATED
ALTRUISM
POMPS
EXHALATION
PAINLESSLY
GREYNESS
DOMINI
WHINES
GUFFAW
UNBEARABLY
SHORELESS
DEFILE
LIGHTSOME
BELFAST
LEANNESS
BAWL
UNVEIL
CYCLING
IRELAND'S
FRANCISCANS
OMNIPRESENT
BLASPHEMIES
SICUT
LOPSIDED
REFLECTOR
CLASSROOM
RISOTTO
FORTUNATUS
CRUMPLE
TIMELESS
STILLY
CRANE'S
AMBLING
FEATHERING
COPYRIGHT
WHALEBONE
TITTERING
REINFORCING
TIPTOP
ARMPIT
ASHPLANT
CONVERSIONS
OVERALL
SUNWARD
OVID
PLAYGROUNDS
HYMNAL
CELEBRANT
EXCREMENT
HACKETT
TRANSMUTING
COBWEBBED
TINGES
GLUTTONOUS
SCRIBBLER
WO
SYMBOLIZING
STRAITNESS
HIRELINGS
COROLLA
HERON'S
BALLY
GUIDO
MOIETY
UNCONTAMINATED
GIRAFFE
DESOLATING
TONELESS
EYELESS
ANTHONY'S
GATHERER
MUMMERY
OCEANIC
SCRIMMAGE
FARCICAL
LOYOLA
SWISHED
HARTS
DECOMPOSING
WHET
UT
TARRYING
SWEATER
SPOOLS
WHEEZING
SEMINARIES
AVID
KILDARE
UNWOUND
ARCHANGELS
HOODWINK
VOYAGING
TENUOUS
WAFER
SKYLINE
INFORMERS
EUGENICS
FROWSY
INTONING
INFLAMING
UNFELT
TU
O'NEILL
GRANTHAM
MAULED
SOMNOLENT
ESPLANADE
ROUTING
ALLA
BONUM
FOULLY
IDLEST
INVENTIVENESS
INCESTUOUS
UNBENT
TRILLED
SUAVELY
METAMORPHOSES
EXECRATION
COMMUNIONS
MEDIATE
INTRUSIONS
EQUINE
QUEENSTOWN
LISA
PREYS
SUCCUMBING
DUNN'S
DISARMAMENT
SYNOPSIS
DODDERING
UNCARPETED
JAMBS
VIRGIN'S
LANGUOROUS
REPENTANTLY
UNCOILING
RHYTHMS
CROOKEDLY
TESTAMENTS
FLUE
WILFULNESS
ABASE
ABHORRING
ERAS
BOORISH
PARING
WAXY
FLUSHES
PARLEYED
COCOON
CLASHES
SONOROUSLY
THROATY
ADELPHI
BREAKWATER
NEWMAN'S
CORRECTS
INFECT
DICTIONARIES
COHORT
SECONDHAND
UNGRUDGINGLY
OFFAL
LAOCOON
REHEARSALS
BUSKINS
EILEEN
LEPROUS
GROSSNESS
FILCHED
PHYSIOLOGIST
FLANNELS
FLOWERBEDS
EVOCATION
TURNSTILE
TURBULENCE
CLOTS
CONFESSIONAL
SPURNING
PITTING
HARBINGER
VIRTUAL
GARNER
SQUANDERING
IDEALISTIC
DIDACTIC
COMMAS
SCUTTLING
CRIMPED
TRAMS
ROVED
NICKNAMES
REASSUMED
BATTLEFIELDS
INTONED
BAPTIZING
THEOLOGIAN
ENFOLDED
TRYST
FRANKINCENSE
EXECRATIONS
SIMMERING
DWARFISH
JESU
RECREATE
MILKMAN
SERAPH
CLASSMATE
ROTUNDA
BEDAD
FORAYS
